**
** Heading +++++++++++++++++++++++++++++++++++++++++++++++++
**
*Heading
Hash: SydmOSQI, Date: 04/18/2026, Unit system: UNIT_LESS
**
** Nodes +++++++++++++++++++++++++++++++++++++++++++++++++++
**
*Node
1, 0.00000000E+000, 0.00000000E+000, 0.00000000E+000
2, 1.00000000E+000, 0.00000000E+000, 0.00000000E+000
3, 1.00000000E+000, 1.00000000E+000, 0.00000000E+000
4, 0.00000000E+000, 1.00000000E+000, 0.00000000E+000
5, 1.00000000E+000, 2.00000000E+000, 0.00000000E+000
6, 0.00000000E+000, 2.00000000E+000, 0.00000000E+000
7, 1.00000000E+000, 3.00000000E+000, 0.00000000E+000
8, 0.00000000E+000, 3.00000000E+000, 0.00000000E+000
9, 1.00000000E+000, 4.00000000E+000, 0.00000000E+000
10, 0.00000000E+000, 4.00000000E+000, 0.00000000E+000
11, 1.00000000E+000, 5.00000000E+000, 0.00000000E+000
12, 0.00000000E+000, 5.00000000E+000, 0.00000000E+000
13, 1.00000000E+000, 6.00000000E+000, 0.00000000E+000
14, 0.00000000E+000, 6.00000000E+000, 0.00000000E+000
15, 1.00000000E+000, 7.00000000E+000, 0.00000000E+000
16, 0.00000000E+000, 7.00000000E+000, 0.00000000E+000
17, 1.00000000E+000, 8.00000000E+000, 0.00000000E+000
18, 0.00000000E+000, 8.00000000E+000, 0.00000000E+000
19, 1.00000000E+000, 9.00000000E+000, 0.00000000E+000
20, 0.00000000E+000, 9.00000000E+000, 0.00000000E+000
** ... 6151 like lines cut
**
** Elements ++++++++++++++++++++++++++++++++++++++++++++++++
**
*Element, Type=C3D8, Elset=Solid_part-1
1, 1, 2, 3, 4, 562, 572, 582, 592
2, 562, 572, 582, 592, 563, 573, 583, 593
3, 563, 573, 583, 593, 564, 574, 584, 594
4, 564, 574, 584, 594, 565, 575, 585, 595
5, 565, 575, 585, 595, 566, 576, 586, 596
6, 566, 576, 586, 596, 567, 577, 587, 597
7, 567, 577, 587, 597, 568, 578, 588, 598
8, 568, 578, 588, 598, 569, 579, 589, 599
9, 569, 579, 589, 599, 570, 580, 590, 600
10, 570, 580, 590, 600, 571, 581, 591, 601
11, 4, 3, 5, 6, 592, 582, 602, 612
12, 592, 582, 602, 612, 593, 583, 603, 613
13, 593, 583, 603, 613, 594, 584, 604, 614
14, 594, 584, 604, 614, 595, 585, 605, 615
15, 595, 585, 605, 615, 596, 586, 606, 616
16, 596, 586, 606, 616, 597, 587, 607, 617
17, 597, 587, 607, 617, 598, 588, 608, 618
18, 598, 588, 608, 618, 599, 589, 609, 619
19, 599, 589, 609, 619, 600, 590, 610, 620
20, 600, 590, 610, 620, 601, 591, 611, 621
** ... 4980 like lines cut
**
** Node sets +++++++++++++++++++++++++++++++++++++++++++++++
**
*Nset, Nset=Group_1
100, 101, 102, 103, 104, 105, 106, 107, 108, 109, 110
*Nset, Nset=Group_2
454, 455, 456, 457, 458, 459, 460, 461, 462, 463, 464
*Nset, Nset=Group_3
3321, 3331, 3341, 3351, 3361, 3371, 3381, 3391, 3401, 3411, 3421
*Nset, Nset=Layer1_fromEl
570, 571, 580, 581, 590, 591, 600, 601, 610, 611, 620, 621, 630, 631, 640, 641, 
650, 651, 660, 661, 670, 671, 680, 681, 690, 691, 700, 701, 710, 711, 720, 721, 
730, 731, 740, 741, 750, 751, 760, 761, 770, 771, 780, 781, 790, 791, 800, 801, 
810, 811, 820, 821, 830, 831, 840, 841, 850, 851, 860, 861, 870, 871, 880, 881, 
890, 891, 900, 901, 910, 911, 920, 921, 930, 931, 940, 941, 950, 951, 960, 961, 
970, 971, 980, 981, 990, 991, 1000, 1001, 1010, 1011, 1020, 1021, 1030, 1031, 1040, 1041, 
1050, 1051, 1060, 1061, 1070, 1071, 1080, 1081, 1090, 1091, 1100, 1101, 1110, 1111, 1120, 1121, 
1130, 1131, 1140, 1141, 1150, 1151, 1160, 1161, 1170, 1171, 1180, 1181, 1190, 1191, 1200, 1201, 
1210, 1211, 1220, 1221, 1230, 1231, 1240, 1241, 1250, 1251, 1260, 1261, 1270, 1271, 1280, 1281, 
1290, 1291, 1300, 1301, 1310, 1311, 1320, 1321, 1330, 1331, 1340, 1341, 1350, 1351, 1360, 1361, 
1370, 1371, 1380, 1381, 1390, 1391, 1400, 1401, 1410, 1411, 1420, 1421, 1430, 1431, 1440, 1441, 
1450, 1451, 1460, 1461, 1470, 1471, 1480, 1481, 1490, 1491, 1500, 1501, 1510, 1511, 1520, 1521, 
1530, 1531, 1540, 1541, 1550, 1551, 1560, 1561, 1570, 1571, 1580, 1581, 1590, 1591, 1600, 1601, 
1610, 1611, 1620, 1621, 1630, 1631, 1640, 1641, 1650, 1651, 1660, 1661, 1670, 1671, 1680, 1681, 
1690, 1691, 1700, 1701, 1710, 1711, 1720, 1721, 1730, 1731, 1740, 1741, 1750, 1751, 1760, 1761, 
1770, 1771, 1780, 1781, 1790, 1791, 1800, 1801, 1810, 1811, 1820, 1821, 1830, 1831, 1840, 1841, 
1850, 1851, 1860, 1861, 1870, 1871, 1880, 1881, 1890, 1891, 1900, 1901, 1910, 1911, 1920, 1921, 
1930, 1931, 1940, 1941, 1950, 1951, 1960, 1961, 1970, 1971, 1980, 1981, 1990, 1991, 2000, 2001, 
2010, 2011, 2020, 2021, 2030, 2031, 2040, 2041, 2050, 2051, 2060, 2061, 2070, 2071, 2080, 2081, 
2090, 2091, 2100, 2101, 2110, 2111, 2120, 2121, 2130, 2131, 2140, 2141, 2150, 2151, 2160, 2161, 
** ... 51 like lines cut
*Nset, Nset=Layer4_fromEl
564, 565, 566, 567, 568, 574, 575, 576, 577, 578, 584, 585, 586, 587, 588, 594, 
595, 596, 597, 598, 604, 605, 606, 607, 608, 614, 615, 616, 617, 618, 624, 625, 
626, 627, 628, 634, 635, 636, 637, 638, 644, 645, 646, 647, 648, 654, 655, 656, 
657, 658, 664, 665, 666, 667, 668, 674, 675, 676, 677, 678, 684, 685, 686, 687, 
688, 694, 695, 696, 697, 698, 704, 705, 706, 707, 708, 714, 715, 716, 717, 718, 
724, 725, 726, 727, 728, 734, 735, 736, 737, 738, 744, 745, 746, 747, 748, 754, 
755, 756, 757, 758, 764, 765, 766, 767, 768, 774, 775, 776, 777, 778, 784, 785, 
786, 787, 788, 794, 795, 796, 797, 798, 804, 805, 806, 807, 808, 814, 815, 816, 
817, 818, 824, 825, 826, 827, 828, 834, 835, 836, 837, 838, 844, 845, 846, 847, 
848, 854, 855, 856, 857, 858, 864, 865, 866, 867, 868, 874, 875, 876, 877, 878, 
884, 885, 886, 887, 888, 894, 895, 896, 897, 898, 904, 905, 906, 907, 908, 914, 
915, 916, 917, 918, 924, 925, 926, 927, 928, 934, 935, 936, 937, 938, 944, 945, 
946, 947, 948, 954, 955, 956, 957, 958, 964, 965, 966, 967, 968, 974, 975, 976, 
977, 978, 984, 985, 986, 987, 988, 994, 995, 996, 997, 998, 1004, 1005, 1006, 1007, 
1008, 1014, 1015, 1016, 1017, 1018, 1024, 1025, 1026, 1027, 1028, 1034, 1035, 1036, 1037, 1038, 
1044, 1045, 1046, 1047, 1048, 1054, 1055, 1056, 1057, 1058, 1064, 1065, 1066, 1067, 1068, 1074, 
1075, 1076, 1077, 1078, 1084, 1085, 1086, 1087, 1088, 1094, 1095, 1096, 1097, 1098, 1104, 1105, 
1106, 1107, 1108, 1114, 1115, 1116, 1117, 1118, 1124, 1125, 1126, 1127, 1128, 1134, 1135, 1136, 
1137, 1138, 1144, 1145, 1146, 1147, 1148, 1154, 1155, 1156, 1157, 1158, 1164, 1165, 1166, 1167, 
1168, 1174, 1175, 1176, 1177, 1178, 1184, 1185, 1186, 1187, 1188, 1194, 1195, 1196, 1197, 1198, 
** ... 156 like lines cut
*Nset, Nset=Layer2_fromEl
569, 570, 579, 580, 589, 590, 599, 600, 609, 610, 619, 620, 629, 630, 639, 640, 
649, 650, 659, 660, 669, 670, 679, 680, 689, 690, 699, 700, 709, 710, 719, 720, 
729, 730, 739, 740, 749, 750, 759, 760, 769, 770, 779, 780, 789, 790, 799, 800, 
809, 810, 819, 820, 829, 830, 839, 840, 849, 850, 859, 860, 869, 870, 879, 880, 
889, 890, 899, 900, 909, 910, 919, 920, 929, 930, 939, 940, 949, 950, 959, 960, 
969, 970, 979, 980, 989, 990, 999, 1000, 1009, 1010, 1019, 1020, 1029, 1030, 1039, 1040, 
1049, 1050, 1059, 1060, 1069, 1070, 1079, 1080, 1089, 1090, 1099, 1100, 1109, 1110, 1119, 1120, 
1129, 1130, 1139, 1140, 1149, 1150, 1159, 1160, 1169, 1170, 1179, 1180, 1189, 1190, 1199, 1200, 
1209, 1210, 1219, 1220, 1229, 1230, 1239, 1240, 1249, 1250, 1259, 1260, 1269, 1270, 1279, 1280, 
1289, 1290, 1299, 1300, 1309, 1310, 1319, 1320, 1329, 1330, 1339, 1340, 1349, 1350, 1359, 1360, 
1369, 1370, 1379, 1380, 1389, 1390, 1399, 1400, 1409, 1410, 1419, 1420, 1429, 1430, 1439, 1440, 
1449, 1450, 1459, 1460, 1469, 1470, 1479, 1480, 1489, 1490, 1499, 1500, 1509, 1510, 1519, 1520, 
1529, 1530, 1539, 1540, 1549, 1550, 1559, 1560, 1569, 1570, 1579, 1580, 1589, 1590, 1599, 1600, 
1609, 1610, 1619, 1620, 1629, 1630, 1639, 1640, 1649, 1650, 1659, 1660, 1669, 1670, 1679, 1680, 
1689, 1690, 1699, 1700, 1709, 1710, 1719, 1720, 1729, 1730, 1739, 1740, 1749, 1750, 1759, 1760, 
1769, 1770, 1779, 1780, 1789, 1790, 1799, 1800, 1809, 1810, 1819, 1820, 1829, 1830, 1839, 1840, 
1849, 1850, 1859, 1860, 1869, 1870, 1879, 1880, 1889, 1890, 1899, 1900, 1909, 1910, 1919, 1920, 
1929, 1930, 1939, 1940, 1949, 1950, 1959, 1960, 1969, 1970, 1979, 1980, 1989, 1990, 1999, 2000, 
2009, 2010, 2019, 2020, 2029, 2030, 2039, 2040, 2049, 2050, 2059, 2060, 2069, 2070, 2079, 2080, 
2089, 2090, 2099, 2100, 2109, 2110, 2119, 2120, 2129, 2130, 2139, 2140, 2149, 2150, 2159, 2160, 
** ... 51 like lines cut
*Nset, Nset=Layer3_fromEl
568, 569, 578, 579, 588, 589, 598, 599, 608, 609, 618, 619, 628, 629, 638, 639, 
648, 649, 658, 659, 668, 669, 678, 679, 688, 689, 698, 699, 708, 709, 718, 719, 
728, 729, 738, 739, 748, 749, 758, 759, 768, 769, 778, 779, 788, 789, 798, 799, 
808, 809, 818, 819, 828, 829, 838, 839, 848, 849, 858, 859, 868, 869, 878, 879, 
888, 889, 898, 899, 908, 909, 918, 919, 928, 929, 938, 939, 948, 949, 958, 959, 
968, 969, 978, 979, 988, 989, 998, 999, 1008, 1009, 1018, 1019, 1028, 1029, 1038, 1039, 
1048, 1049, 1058, 1059, 1068, 1069, 1078, 1079, 1088, 1089, 1098, 1099, 1108, 1109, 1118, 1119, 
1128, 1129, 1138, 1139, 1148, 1149, 1158, 1159, 1168, 1169, 1178, 1179, 1188, 1189, 1198, 1199, 
1208, 1209, 1218, 1219, 1228, 1229, 1238, 1239, 1248, 1249, 1258, 1259, 1268, 1269, 1278, 1279, 
1288, 1289, 1298, 1299, 1308, 1309, 1318, 1319, 1328, 1329, 1338, 1339, 1348, 1349, 1358, 1359, 
1368, 1369, 1378, 1379, 1388, 1389, 1398, 1399, 1408, 1409, 1418, 1419, 1428, 1429, 1438, 1439, 
1448, 1449, 1458, 1459, 1468, 1469, 1478, 1479, 1488, 1489, 1498, 1499, 1508, 1509, 1518, 1519, 
1528, 1529, 1538, 1539, 1548, 1549, 1558, 1559, 1568, 1569, 1578, 1579, 1588, 1589, 1598, 1599, 
1608, 1609, 1618, 1619, 1628, 1629, 1638, 1639, 1648, 1649, 1658, 1659, 1668, 1669, 1678, 1679, 
1688, 1689, 1698, 1699, 1708, 1709, 1718, 1719, 1728, 1729, 1738, 1739, 1748, 1749, 1758, 1759, 
1768, 1769, 1778, 1779, 1788, 1789, 1798, 1799, 1808, 1809, 1818, 1819, 1828, 1829, 1838, 1839, 
1848, 1849, 1858, 1859, 1868, 1869, 1878, 1879, 1888, 1889, 1898, 1899, 1908, 1909, 1918, 1919, 
1928, 1929, 1938, 1939, 1948, 1949, 1958, 1959, 1968, 1969, 1978, 1979, 1988, 1989, 1998, 1999, 
2008, 2009, 2018, 2019, 2028, 2029, 2038, 2039, 2048, 2049, 2058, 2059, 2068, 2069, 2078, 2079, 
2088, 2089, 2098, 2099, 2108, 2109, 2118, 2119, 2128, 2129, 2138, 2139, 2148, 2149, 2158, 2159, 
** ... 51 like lines cut
*Nset, Nset=Layer7_fromEl
1, 2, 3, 4, 5, 6, 7, 8, 9, 10, 11, 12, 13, 14, 15, 16, 
17, 18, 19, 20, 21, 22, 23, 24, 25, 26, 27, 28, 29, 30, 31, 32, 
33, 34, 35, 36, 37, 38, 39, 40, 41, 42, 43, 44, 45, 46, 47, 48, 
49, 50, 51, 52, 53, 54, 55, 56, 57, 58, 59, 60, 61, 62, 63, 64, 
65, 66, 67, 68, 69, 70, 71, 72, 73, 74, 75, 76, 77, 78, 79, 80, 
81, 82, 83, 84, 85, 86, 87, 88, 89, 90, 91, 92, 93, 94, 95, 96, 
97, 98, 99, 100, 101, 102, 103, 104, 105, 106, 107, 108, 109, 110, 111, 112, 
113, 114, 115, 116, 117, 118, 119, 120, 121, 122, 123, 124, 125, 126, 127, 128, 
129, 130, 131, 132, 133, 134, 135, 136, 137, 138, 139, 140, 141, 142, 143, 144, 
145, 146, 147, 148, 149, 150, 151, 152, 153, 154, 155, 156, 157, 158, 159, 160, 
161, 162, 163, 164, 165, 166, 167, 168, 169, 170, 171, 172, 173, 174, 175, 176, 
177, 178, 179, 180, 181, 182, 183, 184, 185, 186, 187, 188, 189, 190, 191, 192, 
193, 194, 195, 196, 197, 198, 199, 200, 201, 202, 203, 204, 205, 206, 207, 208, 
209, 210, 211, 212, 213, 214, 215, 216, 217, 218, 219, 220, 221, 222, 223, 224, 
225, 226, 227, 228, 229, 230, 231, 232, 233, 234, 235, 236, 237, 238, 239, 240, 
241, 242, 243, 244, 245, 246, 247, 248, 249, 250, 251, 252, 253, 254, 255, 256, 
257, 258, 259, 260, 261, 262, 263, 264, 265, 266, 267, 268, 269, 270, 271, 272, 
273, 274, 275, 276, 277, 278, 279, 280, 281, 282, 283, 284, 285, 286, 287, 288, 
289, 290, 291, 292, 293, 294, 295, 296, 297, 298, 299, 300, 301, 302, 303, 304, 
305, 306, 307, 308, 309, 310, 311, 312, 313, 314, 315, 316, 317, 318, 319, 320, 
** ... 51 like lines cut
*Nset, Nset=Layer6_fromEl
562, 563, 572, 573, 582, 583, 592, 593, 602, 603, 612, 613, 622, 623, 632, 633, 
642, 643, 652, 653, 662, 663, 672, 673, 682, 683, 692, 693, 702, 703, 712, 713, 
722, 723, 732, 733, 742, 743, 752, 753, 762, 763, 772, 773, 782, 783, 792, 793, 
802, 803, 812, 813, 822, 823, 832, 833, 842, 843, 852, 853, 862, 863, 872, 873, 
882, 883, 892, 893, 902, 903, 912, 913, 922, 923, 932, 933, 942, 943, 952, 953, 
962, 963, 972, 973, 982, 983, 992, 993, 1002, 1003, 1012, 1013, 1022, 1023, 1032, 1033, 
1042, 1043, 1052, 1053, 1062, 1063, 1072, 1073, 1082, 1083, 1092, 1093, 1102, 1103, 1112, 1113, 
1122, 1123, 1132, 1133, 1142, 1143, 1152, 1153, 1162, 1163, 1172, 1173, 1182, 1183, 1192, 1193, 
1202, 1203, 1212, 1213, 1222, 1223, 1232, 1233, 1242, 1243, 1252, 1253, 1262, 1263, 1272, 1273, 
1282, 1283, 1292, 1293, 1302, 1303, 1312, 1313, 1322, 1323, 1332, 1333, 1342, 1343, 1352, 1353, 
1362, 1363, 1372, 1373, 1382, 1383, 1392, 1393, 1402, 1403, 1412, 1413, 1422, 1423, 1432, 1433, 
1442, 1443, 1452, 1453, 1462, 1463, 1472, 1473, 1482, 1483, 1492, 1493, 1502, 1503, 1512, 1513, 
1522, 1523, 1532, 1533, 1542, 1543, 1552, 1553, 1562, 1563, 1572, 1573, 1582, 1583, 1592, 1593, 
1602, 1603, 1612, 1613, 1622, 1623, 1632, 1633, 1642, 1643, 1652, 1653, 1662, 1663, 1672, 1673, 
1682, 1683, 1692, 1693, 1702, 1703, 1712, 1713, 1722, 1723, 1732, 1733, 1742, 1743, 1752, 1753, 
1762, 1763, 1772, 1773, 1782, 1783, 1792, 1793, 1802, 1803, 1812, 1813, 1822, 1823, 1832, 1833, 
1842, 1843, 1852, 1853, 1862, 1863, 1872, 1873, 1882, 1883, 1892, 1893, 1902, 1903, 1912, 1913, 
1922, 1923, 1932, 1933, 1942, 1943, 1952, 1953, 1962, 1963, 1972, 1973, 1982, 1983, 1992, 1993, 
2002, 2003, 2012, 2013, 2022, 2023, 2032, 2033, 2042, 2043, 2052, 2053, 2062, 2063, 2072, 2073, 
2082, 2083, 2092, 2093, 2102, 2103, 2112, 2113, 2122, 2123, 2132, 2133, 2142, 2143, 2152, 2153, 
** ... 51 like lines cut
*Nset, Nset=Layer5_fromEl
563, 564, 573, 574, 583, 584, 593, 594, 603, 604, 613, 614, 623, 624, 633, 634, 
643, 644, 653, 654, 663, 664, 673, 674, 683, 684, 693, 694, 703, 704, 713, 714, 
723, 724, 733, 734, 743, 744, 753, 754, 763, 764, 773, 774, 783, 784, 793, 794, 
803, 804, 813, 814, 823, 824, 833, 834, 843, 844, 853, 854, 863, 864, 873, 874, 
883, 884, 893, 894, 903, 904, 913, 914, 923, 924, 933, 934, 943, 944, 953, 954, 
963, 964, 973, 974, 983, 984, 993, 994, 1003, 1004, 1013, 1014, 1023, 1024, 1033, 1034, 
1043, 1044, 1053, 1054, 1063, 1064, 1073, 1074, 1083, 1084, 1093, 1094, 1103, 1104, 1113, 1114, 
1123, 1124, 1133, 1134, 1143, 1144, 1153, 1154, 1163, 1164, 1173, 1174, 1183, 1184, 1193, 1194, 
1203, 1204, 1213, 1214, 1223, 1224, 1233, 1234, 1243, 1244, 1253, 1254, 1263, 1264, 1273, 1274, 
1283, 1284, 1293, 1294, 1303, 1304, 1313, 1314, 1323, 1324, 1333, 1334, 1343, 1344, 1353, 1354, 
1363, 1364, 1373, 1374, 1383, 1384, 1393, 1394, 1403, 1404, 1413, 1414, 1423, 1424, 1433, 1434, 
1443, 1444, 1453, 1454, 1463, 1464, 1473, 1474, 1483, 1484, 1493, 1494, 1503, 1504, 1513, 1514, 
1523, 1524, 1533, 1534, 1543, 1544, 1553, 1554, 1563, 1564, 1573, 1574, 1583, 1584, 1593, 1594, 
1603, 1604, 1613, 1614, 1623, 1624, 1633, 1634, 1643, 1644, 1653, 1654, 1663, 1664, 1673, 1674, 
1683, 1684, 1693, 1694, 1703, 1704, 1713, 1714, 1723, 1724, 1733, 1734, 1743, 1744, 1753, 1754, 
1763, 1764, 1773, 1774, 1783, 1784, 1793, 1794, 1803, 1804, 1813, 1814, 1823, 1824, 1833, 1834, 
1843, 1844, 1853, 1854, 1863, 1864, 1873, 1874, 1883, 1884, 1893, 1894, 1903, 1904, 1913, 1914, 
1923, 1924, 1933, 1934, 1943, 1944, 1953, 1954, 1963, 1964, 1973, 1974, 1983, 1984, 1993, 1994, 
2003, 2004, 2013, 2014, 2023, 2024, 2033, 2034, 2043, 2044, 2053, 2054, 2063, 2064, 2073, 2074, 
2083, 2084, 2093, 2094, 2103, 2104, 2113, 2114, 2123, 2124, 2133, 2134, 2143, 2144, 2153, 2154, 
** ... 51 like lines cut
**
** Element sets ++++++++++++++++++++++++++++++++++++++++++++
**
*Elset, Elset=Layer1
10, 20, 30, 40, 50, 60, 70, 80, 90, 100, 110, 120, 130, 140, 150, 160, 
170, 180, 190, 200, 210, 220, 230, 240, 250, 260, 270, 280, 290, 300, 310, 320, 
330, 340, 350, 360, 370, 380, 390, 400, 410, 420, 430, 440, 450, 460, 470, 480, 
490, 500, 510, 520, 530, 540, 550, 560, 570, 580, 590, 600, 610, 620, 630, 640, 
650, 660, 670, 680, 690, 700, 710, 720, 730, 740, 750, 760, 770, 780, 790, 800, 
810, 820, 830, 840, 850, 860, 870, 880, 890, 900, 910, 920, 930, 940, 950, 960, 
970, 980, 990, 1000, 1010, 1020, 1030, 1040, 1050, 1060, 1070, 1080, 1090, 1100, 1110, 1120, 
1130, 1140, 1150, 1160, 1170, 1180, 1190, 1200, 1210, 1220, 1230, 1240, 1250, 1260, 1270, 1280, 
1290, 1300, 1310, 1320, 1330, 1340, 1350, 1360, 1370, 1380, 1390, 1400, 1410, 1420, 1430, 1440, 
1450, 1460, 1470, 1480, 1490, 1500, 1510, 1520, 1530, 1540, 1550, 1560, 1570, 1580, 1590, 1600, 
1610, 1620, 1630, 1640, 1650, 1660, 1670, 1680, 1690, 1700, 1710, 1720, 1730, 1740, 1750, 1760, 
1770, 1780, 1790, 1800, 1810, 1820, 1830, 1840, 1850, 1860, 1870, 1880, 1890, 1900, 1910, 1920, 
1930, 1940, 1950, 1960, 1970, 1980, 1990, 2000, 2010, 2020, 2030, 2040, 2050, 2060, 2070, 2080, 
2090, 2100, 2110, 2120, 2130, 2140, 2150, 2160, 2170, 2180, 2190, 2200, 2210, 2220, 2230, 2240, 
2250, 2260, 2270, 2280, 2290, 2300, 2310, 2320, 2330, 2340, 2350, 2360, 2370, 2380, 2390, 2400, 
2410, 2420, 2430, 2440, 2450, 2460, 2470, 2480, 2490, 2500, 2510, 2520, 2530, 2540, 2550, 2560, 
2570, 2580, 2590, 2600, 2610, 2620, 2630, 2640, 2650, 2660, 2670, 2680, 2690, 2700, 2710, 2720, 
2730, 2740, 2750, 2760, 2770, 2780, 2790, 2800, 2810, 2820, 2830, 2840, 2850, 2860, 2870, 2880, 
2890, 2900, 2910, 2920, 2930, 2940, 2950, 2960, 2970, 2980, 2990, 3000, 3010, 3020, 3030, 3040, 
3050, 3060, 3070, 3080, 3090, 3100, 3110, 3120, 3130, 3140, 3150, 3160, 3170, 3180, 3190, 3200, 
** ... 12 like lines cut
*Elset, Elset=Layer4
4, 5, 6, 7, 14, 15, 16, 17, 24, 25, 26, 27, 34, 35, 36, 37, 
44, 45, 46, 47, 54, 55, 56, 57, 64, 65, 66, 67, 74, 75, 76, 77, 
84, 85, 86, 87, 94, 95, 96, 97, 104, 105, 106, 107, 114, 115, 116, 117, 
124, 125, 126, 127, 134, 135, 136, 137, 144, 145, 146, 147, 154, 155, 156, 157, 
164, 165, 166, 167, 174, 175, 176, 177, 184, 185, 186, 187, 194, 195, 196, 197, 
204, 205, 206, 207, 214, 215, 216, 217, 224, 225, 226, 227, 234, 235, 236, 237, 
244, 245, 246, 247, 254, 255, 256, 257, 264, 265, 266, 267, 274, 275, 276, 277, 
284, 285, 286, 287, 294, 295, 296, 297, 304, 305, 306, 307, 314, 315, 316, 317, 
324, 325, 326, 327, 334, 335, 336, 337, 344, 345, 346, 347, 354, 355, 356, 357, 
364, 365, 366, 367, 374, 375, 376, 377, 384, 385, 386, 387, 394, 395, 396, 397, 
404, 405, 406, 407, 414, 415, 416, 417, 424, 425, 426, 427, 434, 435, 436, 437, 
444, 445, 446, 447, 454, 455, 456, 457, 464, 465, 466, 467, 474, 475, 476, 477, 
484, 485, 486, 487, 494, 495, 496, 497, 504, 505, 506, 507, 514, 515, 516, 517, 
524, 525, 526, 527, 534, 535, 536, 537, 544, 545, 546, 547, 554, 555, 556, 557, 
564, 565, 566, 567, 574, 575, 576, 577, 584, 585, 586, 587, 594, 595, 596, 597, 
604, 605, 606, 607, 614, 615, 616, 617, 624, 625, 626, 627, 634, 635, 636, 637, 
644, 645, 646, 647, 654, 655, 656, 657, 664, 665, 666, 667, 674, 675, 676, 677, 
684, 685, 686, 687, 694, 695, 696, 697, 704, 705, 706, 707, 714, 715, 716, 717, 
724, 725, 726, 727, 734, 735, 736, 737, 744, 745, 746, 747, 754, 755, 756, 757, 
764, 765, 766, 767, 774, 775, 776, 777, 784, 785, 786, 787, 794, 795, 796, 797, 
** ... 105 like lines cut
*Elset, Elset=Layer2
9, 19, 29, 39, 49, 59, 69, 79, 89, 99, 109, 119, 129, 139, 149, 159, 
169, 179, 189, 199, 209, 219, 229, 239, 249, 259, 269, 279, 289, 299, 309, 319, 
329, 339, 349, 359, 369, 379, 389, 399, 409, 419, 429, 439, 449, 459, 469, 479, 
489, 499, 509, 519, 529, 539, 549, 559, 569, 579, 589, 599, 609, 619, 629, 639, 
649, 659, 669, 679, 689, 699, 709, 719, 729, 739, 749, 759, 769, 779, 789, 799, 
809, 819, 829, 839, 849, 859, 869, 879, 889, 899, 909, 919, 929, 939, 949, 959, 
969, 979, 989, 999, 1009, 1019, 1029, 1039, 1049, 1059, 1069, 1079, 1089, 1099, 1109, 1119, 
1129, 1139, 1149, 1159, 1169, 1179, 1189, 1199, 1209, 1219, 1229, 1239, 1249, 1259, 1269, 1279, 
1289, 1299, 1309, 1319, 1329, 1339, 1349, 1359, 1369, 1379, 1389, 1399, 1409, 1419, 1429, 1439, 
1449, 1459, 1469, 1479, 1489, 1499, 1509, 1519, 1529, 1539, 1549, 1559, 1569, 1579, 1589, 1599, 
1609, 1619, 1629, 1639, 1649, 1659, 1669, 1679, 1689, 1699, 1709, 1719, 1729, 1739, 1749, 1759, 
1769, 1779, 1789, 1799, 1809, 1819, 1829, 1839, 1849, 1859, 1869, 1879, 1889, 1899, 1909, 1919, 
1929, 1939, 1949, 1959, 1969, 1979, 1989, 1999, 2009, 2019, 2029, 2039, 2049, 2059, 2069, 2079, 
2089, 2099, 2109, 2119, 2129, 2139, 2149, 2159, 2169, 2179, 2189, 2199, 2209, 2219, 2229, 2239, 
2249, 2259, 2269, 2279, 2289, 2299, 2309, 2319, 2329, 2339, 2349, 2359, 2369, 2379, 2389, 2399, 
2409, 2419, 2429, 2439, 2449, 2459, 2469, 2479, 2489, 2499, 2509, 2519, 2529, 2539, 2549, 2559, 
2569, 2579, 2589, 2599, 2609, 2619, 2629, 2639, 2649, 2659, 2669, 2679, 2689, 2699, 2709, 2719, 
2729, 2739, 2749, 2759, 2769, 2779, 2789, 2799, 2809, 2819, 2829, 2839, 2849, 2859, 2869, 2879, 
2889, 2899, 2909, 2919, 2929, 2939, 2949, 2959, 2969, 2979, 2989, 2999, 3009, 3019, 3029, 3039, 
3049, 3059, 3069, 3079, 3089, 3099, 3109, 3119, 3129, 3139, 3149, 3159, 3169, 3179, 3189, 3199, 
** ... 12 like lines cut
*Elset, Elset=Layer3
8, 18, 28, 38, 48, 58, 68, 78, 88, 98, 108, 118, 128, 138, 148, 158, 
168, 178, 188, 198, 208, 218, 228, 238, 248, 258, 268, 278, 288, 298, 308, 318, 
328, 338, 348, 358, 368, 378, 388, 398, 408, 418, 428, 438, 448, 458, 468, 478, 
488, 498, 508, 518, 528, 538, 548, 558, 568, 578, 588, 598, 608, 618, 628, 638, 
648, 658, 668, 678, 688, 698, 708, 718, 728, 738, 748, 758, 768, 778, 788, 798, 
808, 818, 828, 838, 848, 858, 868, 878, 888, 898, 908, 918, 928, 938, 948, 958, 
968, 978, 988, 998, 1008, 1018, 1028, 1038, 1048, 1058, 1068, 1078, 1088, 1098, 1108, 1118, 
1128, 1138, 1148, 1158, 1168, 1178, 1188, 1198, 1208, 1218, 1228, 1238, 1248, 1258, 1268, 1278, 
1288, 1298, 1308, 1318, 1328, 1338, 1348, 1358, 1368, 1378, 1388, 1398, 1408, 1418, 1428, 1438, 
1448, 1458, 1468, 1478, 1488, 1498, 1508, 1518, 1528, 1538, 1548, 1558, 1568, 1578, 1588, 1598, 
1608, 1618, 1628, 1638, 1648, 1658, 1668, 1678, 1688, 1698, 1708, 1718, 1728, 1738, 1748, 1758, 
1768, 1778, 1788, 1798, 1808, 1818, 1828, 1838, 1848, 1858, 1868, 1878, 1888, 1898, 1908, 1918, 
1928, 1938, 1948, 1958, 1968, 1978, 1988, 1998, 2008, 2018, 2028, 2038, 2048, 2058, 2068, 2078, 
2088, 2098, 2108, 2118, 2128, 2138, 2148, 2158, 2168, 2178, 2188, 2198, 2208, 2218, 2228, 2238, 
2248, 2258, 2268, 2278, 2288, 2298, 2308, 2318, 2328, 2338, 2348, 2358, 2368, 2378, 2388, 2398, 
2408, 2418, 2428, 2438, 2448, 2458, 2468, 2478, 2488, 2498, 2508, 2518, 2528, 2538, 2548, 2558, 
2568, 2578, 2588, 2598, 2608, 2618, 2628, 2638, 2648, 2658, 2668, 2678, 2688, 2698, 2708, 2718, 
2728, 2738, 2748, 2758, 2768, 2778, 2788, 2798, 2808, 2818, 2828, 2838, 2848, 2858, 2868, 2878, 
2888, 2898, 2908, 2918, 2928, 2938, 2948, 2958, 2968, 2978, 2988, 2998, 3008, 3018, 3028, 3038, 
3048, 3058, 3068, 3078, 3088, 3098, 3108, 3118, 3128, 3138, 3148, 3158, 3168, 3178, 3188, 3198, 
** ... 12 like lines cut
*Elset, Elset=Layer7
1, 11, 21, 31, 41, 51, 61, 71, 81, 91, 101, 111, 121, 131, 141, 151, 
161, 171, 181, 191, 201, 211, 221, 231, 241, 251, 261, 271, 281, 291, 301, 311, 
321, 331, 341, 351, 361, 371, 381, 391, 401, 411, 421, 431, 441, 451, 461, 471, 
481, 491, 501, 511, 521, 531, 541, 551, 561, 571, 581, 591, 601, 611, 621, 631, 
641, 651, 661, 671, 681, 691, 701, 711, 721, 731, 741, 751, 761, 771, 781, 791, 
801, 811, 821, 831, 841, 851, 861, 871, 881, 891, 901, 911, 921, 931, 941, 951, 
961, 971, 981, 991, 1001, 1011, 1021, 1031, 1041, 1051, 1061, 1071, 1081, 1091, 1101, 1111, 
1121, 1131, 1141, 1151, 1161, 1171, 1181, 1191, 1201, 1211, 1221, 1231, 1241, 1251, 1261, 1271, 
1281, 1291, 1301, 1311, 1321, 1331, 1341, 1351, 1361, 1371, 1381, 1391, 1401, 1411, 1421, 1431, 
1441, 1451, 1461, 1471, 1481, 1491, 1501, 1511, 1521, 1531, 1541, 1551, 1561, 1571, 1581, 1591, 
1601, 1611, 1621, 1631, 1641, 1651, 1661, 1671, 1681, 1691, 1701, 1711, 1721, 1731, 1741, 1751, 
1761, 1771, 1781, 1791, 1801, 1811, 1821, 1831, 1841, 1851, 1861, 1871, 1881, 1891, 1901, 1911, 
1921, 1931, 1941, 1951, 1961, 1971, 1981, 1991, 2001, 2011, 2021, 2031, 2041, 2051, 2061, 2071, 
2081, 2091, 2101, 2111, 2121, 2131, 2141, 2151, 2161, 2171, 2181, 2191, 2201, 2211, 2221, 2231, 
2241, 2251, 2261, 2271, 2281, 2291, 2301, 2311, 2321, 2331, 2341, 2351, 2361, 2371, 2381, 2391, 
2401, 2411, 2421, 2431, 2441, 2451, 2461, 2471, 2481, 2491, 2501, 2511, 2521, 2531, 2541, 2551, 
2561, 2571, 2581, 2591, 2601, 2611, 2621, 2631, 2641, 2651, 2661, 2671, 2681, 2691, 2701, 2711, 
2721, 2731, 2741, 2751, 2761, 2771, 2781, 2791, 2801, 2811, 2821, 2831, 2841, 2851, 2861, 2871, 
2881, 2891, 2901, 2911, 2921, 2931, 2941, 2951, 2961, 2971, 2981, 2991, 3001, 3011, 3021, 3031, 
3041, 3051, 3061, 3071, 3081, 3091, 3101, 3111, 3121, 3131, 3141, 3151, 3161, 3171, 3181, 3191, 
** ... 12 like lines cut
*Elset, Elset=Layer6
2, 12, 22, 32, 42, 52, 62, 72, 82, 92, 102, 112, 122, 132, 142, 152, 
162, 172, 182, 192, 202, 212, 222, 232, 242, 252, 262, 272, 282, 292, 302, 312, 
322, 332, 342, 352, 362, 372, 382, 392, 402, 412, 422, 432, 442, 452, 462, 472, 
482, 492, 502, 512, 522, 532, 542, 552, 562, 572, 582, 592, 602, 612, 622, 632, 
642, 652, 662, 672, 682, 692, 702, 712, 722, 732, 742, 752, 762, 772, 782, 792, 
802, 812, 822, 832, 842, 852, 862, 872, 882, 892, 902, 912, 922, 932, 942, 952, 
962, 972, 982, 992, 1002, 1012, 1022, 1032, 1042, 1052, 1062, 1072, 1082, 1092, 1102, 1112, 
1122, 1132, 1142, 1152, 1162, 1172, 1182, 1192, 1202, 1212, 1222, 1232, 1242, 1252, 1262, 1272, 
1282, 1292, 1302, 1312, 1322, 1332, 1342, 1352, 1362, 1372, 1382, 1392, 1402, 1412, 1422, 1432, 
1442, 1452, 1462, 1472, 1482, 1492, 1502, 1512, 1522, 1532, 1542, 1552, 1562, 1572, 1582, 1592, 
1602, 1612, 1622, 1632, 1642, 1652, 1662, 1672, 1682, 1692, 1702, 1712, 1722, 1732, 1742, 1752, 
1762, 1772, 1782, 1792, 1802, 1812, 1822, 1832, 1842, 1852, 1862, 1872, 1882, 1892, 1902, 1912, 
1922, 1932, 1942, 1952, 1962, 1972, 1982, 1992, 2002, 2012, 2022, 2032, 2042, 2052, 2062, 2072, 
2082, 2092, 2102, 2112, 2122, 2132, 2142, 2152, 2162, 2172, 2182, 2192, 2202, 2212, 2222, 2232, 
2242, 2252, 2262, 2272, 2282, 2292, 2302, 2312, 2322, 2332, 2342, 2352, 2362, 2372, 2382, 2392, 
2402, 2412, 2422, 2432, 2442, 2452, 2462, 2472, 2482, 2492, 2502, 2512, 2522, 2532, 2542, 2552, 
2562, 2572, 2582, 2592, 2602, 2612, 2622, 2632, 2642, 2652, 2662, 2672, 2682, 2692, 2702, 2712, 
2722, 2732, 2742, 2752, 2762, 2772, 2782, 2792, 2802, 2812, 2822, 2832, 2842, 2852, 2862, 2872, 
2882, 2892, 2902, 2912, 2922, 2932, 2942, 2952, 2962, 2972, 2982, 2992, 3002, 3012, 3022, 3032, 
3042, 3052, 3062, 3072, 3082, 3092, 3102, 3112, 3122, 3132, 3142, 3152, 3162, 3172, 3182, 3192, 
** ... 12 like lines cut
*Elset, Elset=Layer5
3, 13, 23, 33, 43, 53, 63, 73, 83, 93, 103, 113, 123, 133, 143, 153, 
163, 173, 183, 193, 203, 213, 223, 233, 243, 253, 263, 273, 283, 293, 303, 313, 
323, 333, 343, 353, 363, 373, 383, 393, 403, 413, 423, 433, 443, 453, 463, 473, 
483, 493, 503, 513, 523, 533, 543, 553, 563, 573, 583, 593, 603, 613, 623, 633, 
643, 653, 663, 673, 683, 693, 703, 713, 723, 733, 743, 753, 763, 773, 783, 793, 
803, 813, 823, 833, 843, 853, 863, 873, 883, 893, 903, 913, 923, 933, 943, 953, 
963, 973, 983, 993, 1003, 1013, 1023, 1033, 1043, 1053, 1063, 1073, 1083, 1093, 1103, 1113, 
1123, 1133, 1143, 1153, 1163, 1173, 1183, 1193, 1203, 1213, 1223, 1233, 1243, 1253, 1263, 1273, 
1283, 1293, 1303, 1313, 1323, 1333, 1343, 1353, 1363, 1373, 1383, 1393, 1403, 1413, 1423, 1433, 
1443, 1453, 1463, 1473, 1483, 1493, 1503, 1513, 1523, 1533, 1543, 1553, 1563, 1573, 1583, 1593, 
1603, 1613, 1623, 1633, 1643, 1653, 1663, 1673, 1683, 1693, 1703, 1713, 1723, 1733, 1743, 1753, 
1763, 1773, 1783, 1793, 1803, 1813, 1823, 1833, 1843, 1853, 1863, 1873, 1883, 1893, 1903, 1913, 
1923, 1933, 1943, 1953, 1963, 1973, 1983, 1993, 2003, 2013, 2023, 2033, 2043, 2053, 2063, 2073, 
2083, 2093, 2103, 2113, 2123, 2133, 2143, 2153, 2163, 2173, 2183, 2193, 2203, 2213, 2223, 2233, 
2243, 2253, 2263, 2273, 2283, 2293, 2303, 2313, 2323, 2333, 2343, 2353, 2363, 2373, 2383, 2393, 
2403, 2413, 2423, 2433, 2443, 2453, 2463, 2473, 2483, 2493, 2503, 2513, 2523, 2533, 2543, 2553, 
2563, 2573, 2583, 2593, 2603, 2613, 2623, 2633, 2643, 2653, 2663, 2673, 2683, 2693, 2703, 2713, 
2723, 2733, 2743, 2753, 2763, 2773, 2783, 2793, 2803, 2813, 2823, 2833, 2843, 2853, 2863, 2873, 
2883, 2893, 2903, 2913, 2923, 2933, 2943, 2953, 2963, 2973, 2983, 2993, 3003, 3013, 3023, 3033, 
3043, 3053, 3063, 3073, 3083, 3093, 3103, 3113, 3123, 3133, 3143, 3153, 3163, 3173, 3183, 3193, 
** ... 12 like lines cut
**
** Surfaces ++++++++++++++++++++++++++++++++++++++++++++++++
**
**
** Physical constants ++++++++++++++++++++++++++++++++++++++
**
**
** Coordinate systems ++++++++++++++++++++++++++++++++++++++
**
**
** Materials +++++++++++++++++++++++++++++++++++++++++++++++
**
*Material, Name=Material-1
*Elastic
100000, 0.4
*Material, Name=Material-2
*Elastic
5000, 0.3
**
** Sections ++++++++++++++++++++++++++++++++++++++++++++++++
**
*Solid section, Elset=Layer1, Material=Material-1
*Solid section, Elset=Layer2, Material=Material-2
*Solid section, Elset=Layer3, Material=Material-1
*Solid section, Elset=Layer4, Material=Material-2
*Solid section, Elset=Layer5, Material=Material-1
*Solid section, Elset=Layer6, Material=Material-2
*Solid section, Elset=Layer7, Material=Material-1
**
** Pre-tension sections ++++++++++++++++++++++++++++++++++++
**
**
** Constraints +++++++++++++++++++++++++++++++++++++++++++++
**
**
** Surface interactions ++++++++++++++++++++++++++++++++++++
**
**
** Contact pairs +++++++++++++++++++++++++++++++++++++++++++
**
**
** Amplitudes ++++++++++++++++++++++++++++++++++++++++++++++
**
**
** Initial conditions ++++++++++++++++++++++++++++++++++++++
**
**
** Steps +++++++++++++++++++++++++++++++++++++++++++++++++++
**
**
** Step-1 ++++++++++++++++++++++++++++++++++++++++++++++++++
**
*Step
*Static, Solver=spooles
**
** Controls ++++++++++++++++++++++++++++++++++++++++++++++++
**
**
** Output frequency ++++++++++++++++++++++++++++++++++++++++
**
**
** Boundary conditions +++++++++++++++++++++++++++++++++++++
**
*Boundary, op=New
** Name: Displacement_Rotation-1
*Boundary
Group_1, 2, 2, 0
Group_1, 3, 3, 0
** Name: Displacement_Rotation-2
*Boundary
Group_2, 2, 2, 0
Group_2, 3, 3, 0
** Name: Displacement_Rotation-3
*Boundary
Group_3, 1, 2, 0
**
** Loads +++++++++++++++++++++++++++++++++++++++++++++++++++
**
*Cload, op=New
*Dload, op=New
** Name: Concentrated_Force-1
*Cload
Group_3, 3, -9.090909
**
** Defined fields ++++++++++++++++++++++++++++++++++++++++++
**
**
** History outputs +++++++++++++++++++++++++++++++++++++++++
**
**
** Field outputs +++++++++++++++++++++++++++++++++++++++++++
**
*Node file
RF, U
*El file
S, E, NOE
**
** End step ++++++++++++++++++++++++++++++++++++++++++++++++
**
*End step
