**
** Heading +++++++++++++++++++++++++++++++++++++++++++++++++
**
*Heading
Hash: ZlbBQ8vP, Date: 04/17/2026, Unit system: UNIT_LESS
**
** Nodes +++++++++++++++++++++++++++++++++++++++++++++++++++
**
*Node
1, 0.00000000E+000, 0.00000000E+000, 0.00000000E+000
2, 1.00000000E+000, 0.00000000E+000, 0.00000000E+000
3, 1.00000000E+000, 1.00000000E+000, 0.00000000E+000
4, 0.00000000E+000, 1.00000000E+000, 0.00000000E+000
5, 1.00000000E+000, 2.00000000E+000, 0.00000000E+000
6, 0.00000000E+000, 2.00000000E+000, 0.00000000E+000
7, 1.00000000E+000, 3.00000000E+000, 0.00000000E+000
8, 0.00000000E+000, 3.00000000E+000, 0.00000000E+000
9, 1.00000000E+000, 4.00000000E+000, 0.00000000E+000
10, 0.00000000E+000, 4.00000000E+000, 0.00000000E+000
11, 1.00000000E+000, 5.00000000E+000, 0.00000000E+000
12, 0.00000000E+000, 5.00000000E+000, 0.00000000E+000
13, 1.00000000E+000, 6.00000000E+000, 0.00000000E+000
14, 0.00000000E+000, 6.00000000E+000, 0.00000000E+000
15, 1.00000000E+000, 7.00000000E+000, 0.00000000E+000
16, 0.00000000E+000, 7.00000000E+000, 0.00000000E+000
17, 1.00000000E+000, 8.00000000E+000, 0.00000000E+000
18, 0.00000000E+000, 8.00000000E+000, 0.00000000E+000
19, 1.00000000E+000, 9.00000000E+000, 0.00000000E+000
20, 0.00000000E+000, 9.00000000E+000, 0.00000000E+000
** ... 1601 like lines cut
**
** Elements ++++++++++++++++++++++++++++++++++++++++++++++++
**
*Element, Type=S8R, Elset=beam
1, 1, 4, 3, 2, 562, 563, 564, 565
2, 4, 6, 5, 3, 566, 567, 568, 563
3, 6, 8, 7, 5, 569, 570, 571, 567
4, 8, 10, 9, 7, 572, 573, 574, 570
5, 10, 12, 11, 9, 575, 576, 577, 573
6, 12, 14, 13, 11, 578, 579, 580, 576
7, 14, 16, 15, 13, 581, 582, 583, 579
8, 16, 18, 17, 15, 584, 585, 586, 582
9, 18, 20, 19, 17, 587, 588, 589, 585
10, 20, 22, 21, 19, 590, 591, 592, 588
11, 2, 3, 24, 23, 564, 593, 594, 595
12, 3, 5, 25, 24, 568, 596, 597, 593
13, 5, 7, 26, 25, 571, 598, 599, 596
14, 7, 9, 27, 26, 574, 600, 601, 598
15, 9, 11, 28, 27, 577, 602, 603, 600
16, 11, 13, 29, 28, 580, 604, 605, 602
17, 13, 15, 30, 29, 583, 606, 607, 604
18, 15, 17, 31, 30, 586, 608, 609, 606
19, 17, 19, 32, 31, 589, 610, 611, 608
20, 19, 21, 33, 32, 592, 612, 613, 610
** ... 480 like lines cut
**
** Node sets +++++++++++++++++++++++++++++++++++++++++++++++
**
*Nset, Nset=sup1
100, 101, 102, 103, 104, 105, 106, 107, 108, 109, 110
*Nset, Nset=sup2
454, 455, 456, 457, 458, 459, 460, 461, 462, 463, 464
*Nset, Nset=load1
266, 267, 268, 269, 270, 271, 272, 273, 274
*Nset, Nset=load2
265, 275
*Nset, Nset=Group_fromEl
1, 2, 3, 4, 5, 6, 7, 8, 9, 10, 11, 12, 13, 14, 15, 16, 
17, 18, 19, 20, 21, 22, 23, 24, 25, 26, 27, 28, 29, 30, 31, 32, 
33, 34, 35, 36, 37, 38, 39, 40, 41, 42, 43, 44, 45, 46, 47, 48, 
49, 50, 51, 52, 53, 54, 55, 56, 57, 58, 59, 60, 61, 62, 63, 64, 
65, 66, 67, 68, 69, 70, 71, 72, 73, 74, 75, 76, 77, 78, 79, 80, 
81, 82, 83, 84, 85, 86, 87, 88, 89, 90, 91, 92, 93, 94, 95, 96, 
97, 98, 99, 100, 101, 102, 103, 104, 105, 106, 107, 108, 109, 110, 111, 112, 
113, 114, 115, 116, 117, 118, 119, 120, 121, 122, 123, 124, 125, 126, 127, 128, 
129, 130, 131, 132, 133, 134, 135, 136, 137, 138, 139, 140, 141, 142, 143, 144, 
145, 146, 147, 148, 149, 150, 151, 152, 153, 154, 155, 156, 157, 158, 159, 160, 
161, 162, 163, 164, 165, 166, 167, 168, 169, 170, 171, 172, 173, 174, 175, 176, 
177, 178, 179, 180, 181, 182, 183, 184, 185, 186, 187, 188, 189, 190, 191, 192, 
193, 194, 195, 196, 197, 198, 199, 200, 201, 202, 203, 204, 205, 206, 207, 208, 
209, 210, 211, 212, 213, 214, 215, 216, 217, 218, 219, 220, 221, 222, 223, 224, 
225, 226, 227, 228, 229, 230, 231, 232, 233, 234, 235, 236, 237, 238, 239, 240, 
241, 242, 243, 244, 245, 246, 247, 248, 249, 250, 251, 252, 253, 254, 255, 256, 
257, 258, 259, 260, 261, 262, 263, 264, 265, 266, 267, 268, 269, 270, 271, 272, 
273, 274, 275, 276, 277, 278, 279, 280, 281, 282, 283, 284, 285, 286, 287, 288, 
289, 290, 291, 292, 293, 294, 295, 296, 297, 298, 299, 300, 301, 302, 303, 304, 
305, 306, 307, 308, 309, 310, 311, 312, 313, 314, 315, 316, 317, 318, 319, 320, 
** ... 82 like lines cut
**
** Element sets ++++++++++++++++++++++++++++++++++++++++++++
**
*Elset, Elset=Group
1, 2, 3, 4, 5, 6, 7, 8, 9, 10, 11, 12, 13, 14, 15, 16, 
17, 18, 19, 20, 21, 22, 23, 24, 25, 26, 27, 28, 29, 30, 31, 32, 
33, 34, 35, 36, 37, 38, 39, 40, 41, 42, 43, 44, 45, 46, 47, 48, 
49, 50, 51, 52, 53, 54, 55, 56, 57, 58, 59, 60, 61, 62, 63, 64, 
65, 66, 67, 68, 69, 70, 71, 72, 73, 74, 75, 76, 77, 78, 79, 80, 
81, 82, 83, 84, 85, 86, 87, 88, 89, 90, 91, 92, 93, 94, 95, 96, 
97, 98, 99, 100, 101, 102, 103, 104, 105, 106, 107, 108, 109, 110, 111, 112, 
113, 114, 115, 116, 117, 118, 119, 120, 121, 122, 123, 124, 125, 126, 127, 128, 
129, 130, 131, 132, 133, 134, 135, 136, 137, 138, 139, 140, 141, 142, 143, 144, 
145, 146, 147, 148, 149, 150, 151, 152, 153, 154, 155, 156, 157, 158, 159, 160, 
161, 162, 163, 164, 165, 166, 167, 168, 169, 170, 171, 172, 173, 174, 175, 176, 
177, 178, 179, 180, 181, 182, 183, 184, 185, 186, 187, 188, 189, 190, 191, 192, 
193, 194, 195, 196, 197, 198, 199, 200, 201, 202, 203, 204, 205, 206, 207, 208, 
209, 210, 211, 212, 213, 214, 215, 216, 217, 218, 219, 220, 221, 222, 223, 224, 
225, 226, 227, 228, 229, 230, 231, 232, 233, 234, 235, 236, 237, 238, 239, 240, 
241, 242, 243, 244, 245, 246, 247, 248, 249, 250, 251, 252, 253, 254, 255, 256, 
257, 258, 259, 260, 261, 262, 263, 264, 265, 266, 267, 268, 269, 270, 271, 272, 
273, 274, 275, 276, 277, 278, 279, 280, 281, 282, 283, 284, 285, 286, 287, 288, 
289, 290, 291, 292, 293, 294, 295, 296, 297, 298, 299, 300, 301, 302, 303, 304, 
305, 306, 307, 308, 309, 310, 311, 312, 313, 314, 315, 316, 317, 318, 319, 320, 
** ... 12 like lines cut
*Elset, Elset=internal
1, 2, 3, 4, 5, 6, 7, 8, 9, 10, 11, 12, 13, 14, 15, 16, 
17, 18, 19, 20, 21, 22, 23, 24, 25, 26, 27, 28, 29, 30, 31, 32, 
33, 34, 35, 36, 37, 38, 39, 40, 41, 42, 43, 44, 45, 46, 47, 48, 
49, 50, 51, 52, 53, 54, 55, 56, 57, 58, 59, 60, 61, 62, 63, 64, 
65, 66, 67, 68, 69, 70, 71, 72, 73, 74, 75, 76, 77, 78, 79, 80, 
81, 82, 83, 84, 85, 86, 87, 88, 89, 90, 91, 92, 93, 94, 95, 96, 
97, 98, 99, 100, 101, 102, 103, 104, 105, 106, 107, 108, 109, 110, 111, 112, 
113, 114, 115, 116, 117, 118, 119, 120, 121, 122, 123, 124, 125, 126, 127, 128, 
129, 130, 131, 132, 133, 134, 135, 136, 137, 138, 139, 140, 141, 142, 143, 144, 
145, 146, 147, 148, 149, 150, 151, 152, 153, 154, 155, 156, 157, 158, 159, 160, 
161, 162, 163, 164, 165, 166, 167, 168, 169, 170, 171, 172, 173, 174, 175, 176, 
177, 178, 179, 180, 181, 182, 183, 184, 185, 186, 187, 188, 189, 190, 191, 192, 
193, 194, 195, 196, 197, 198, 199, 200, 201, 202, 203, 204, 205, 206, 207, 208, 
209, 210, 211, 212, 213, 214, 215, 216, 217, 218, 219, 220, 221, 222, 223, 224, 
225, 226, 227, 228, 229, 230, 231, 232, 233, 234, 235, 236, 237, 238, 239, 240, 
241, 242, 243, 244, 245, 246, 247, 248, 249, 250, 251, 252, 253, 254, 255, 256, 
257, 258, 259, 260, 261, 262, 263, 264, 265, 266, 267, 268, 269, 270, 271, 272, 
273, 274, 275, 276, 277, 278, 279, 280, 281, 282, 283, 284, 285, 286, 287, 288, 
289, 290, 291, 292, 293, 294, 295, 296, 297, 298, 299, 300, 301, 302, 303, 304, 
305, 306, 307, 308, 309, 310, 311, 312, 313, 314, 315, 316, 317, 318, 319, 320, 
** ... 12 like lines cut
**
**
**
** Physical constants ++++++++++++++++++++++++++++++++++++++
**
**
** Coordinate systems ++++++++++++++++++++++++++++++++++++++
**
**
** Materials +++++++++++++++++++++++++++++++++++++++++++++++
**
**
** Materials +++++++++++++++++++++++++++++++++++++++++++++++
**
*Material, Name=Material-1
*Elastic, TYPE=ENGINEERING CONSTANTS
0.10000E+06,0.50000E+04,0.50000E+04,0.40000E+00,0.30000E+00,0.30000E+00,0.30000E+04,0.20000E+04  
0.20000E+04,
*Material, Name=Material-2
*Elastic, TYPE=ENGINEERING CONSTANTS
0.50000E+04,0.10000E+06,0.50000E+04,0.40000E+00,0.30000E+00,0.30000E+00,0.30000E+04,0.20000E+04
0.20000E+04,
**
** Sections ++++++++++++++++++++++++++++++++++++++++++++++++
**
*Shell section, Elset=beam, composite
.1,,Material-1
.1,,Material-2
.1,,Material-1
.4,,Material-2
.1,,Material-1
.1,,Material-2
.1,,Material-1
**
** Pre-tension sections ++++++++++++++++++++++++++++++++++++
**
**
** Constraints +++++++++++++++++++++++++++++++++++++++++++++
**
**
** Surface interactions ++++++++++++++++++++++++++++++++++++
**
**
** Contact pairs +++++++++++++++++++++++++++++++++++++++++++
**
**
** Amplitudes ++++++++++++++++++++++++++++++++++++++++++++++
**
**
** Initial conditions ++++++++++++++++++++++++++++++++++++++
**
**
** Steps +++++++++++++++++++++++++++++++++++++++++++++++++++
**
**
** Step-1 ++++++++++++++++++++++++++++++++++++++++++++++++++
**
*Step
*Static, Solver=Spooles
**
** Controls ++++++++++++++++++++++++++++++++++++++++++++++++
**
**
** Output frequency ++++++++++++++++++++++++++++++++++++++++
**
**
** Boundary conditions +++++++++++++++++++++++++++++++++++++
**
*Boundary, op=New
** Name: Displacement_Rotation-1
*Boundary
sup1, 2, 2, 0
sup1, 3, 3, 0
** Name: Displacement_Rotation-2
*Boundary
sup2, 2, 2, 0
sup2, 3, 3, 0
** Name: Displacement_Rotation-3
*Boundary
load1, 1, 1, 0
**
** Loads +++++++++++++++++++++++++++++++++++++++++++++++++++
**
*Cload, op=New
*Dload, op=New
** Name: Concentrated_Force-1
*Cload
load1, 3, -10
** Name: Concentrated_Force-2
*Cload
load2, 3, -5
**
** Defined fields ++++++++++++++++++++++++++++++++++++++++++
**
**
** History outputs +++++++++++++++++++++++++++++++++++++++++
**
**
** Field outputs +++++++++++++++++++++++++++++++++++++++++++
**
*Node file
RF, U
*El file
S, E, NOE
**
** End step ++++++++++++++++++++++++++++++++++++++++++++++++
**
*End step
